%chk=gauss.chk
%nprocs=8
%mem=6GB
#p  force b3lyp em=gd3 td=(nstates=6,root=1)  6-31G* guess=read 

This is test

0 1
C     -4.3763013358     -0.6180523961      0.0086124367 
C     -3.3549237529     -1.5462775112     -0.1556215739 
C     -1.9975565676     -1.1409373172     -0.1012477002 
C     -1.6689383542      0.2429768658      0.0853638624 
C     -2.7574638369      1.1730899833      0.1959067344 
C     -4.1085436435      0.7606055565      0.1793149769 
H     -5.4219442468     -0.8974372389      0.0009206849 
H     -3.5358255709     -2.5964206943     -0.3519306145 
C     -0.2633106633      0.5640081029     -0.0166947915 
H     -4.8530401050      1.5261525721      0.3380856972 
C      0.3123080177     -1.7417752209     -0.1974243922 
H      0.8636001969     -2.6536599761     -0.2848625897 
O      0.1017935585      1.8681463741      0.1589559825 
O     -1.0425425710     -2.0780332628     -0.3501994512 
O     -2.4669900401      2.5294965053      0.2735453101 
H     -1.4678482794      2.6462858411      0.2719485358 
C      2.1843545441     -0.1814081724     -0.0117211649 
C      3.0175182481     -1.0940357552      0.6400727628 
C      2.7064397299      0.9511791962     -0.6619037116 
C      4.3962328443     -0.8637900592      0.6189890855 
H      2.6368326506     -1.9266816906      1.2159623289 
C      4.1036811057      1.2232814657     -0.5893093005 
H      2.1048553412      1.6913908050     -1.1886602744 
C      4.9233922578      0.3316715133      0.0784880377 
H      5.0572934927     -1.5726455768      1.0970517335 
H      4.4667543518      2.1355531420     -1.0540796579 
H      5.9796903308      0.5246617754      0.1741856307 
C      0.7159795264     -0.4482801075     -0.0517437565  


