%chk=gauss.chk
%nprocs=6
%mem=6GB
#p force b3lyp em=gd3 td=(nstates=6, root=1) 3-21G guess=read 

This is test

0 1
C     -4.3774014369     -0.6792202676      0.0298020906 
C     -3.3335086874     -1.5848450488     -0.0610096458 
C     -1.9789451195     -1.0594029614     -0.0783649697 
C     -1.7050527122      0.2295021348      0.0777556566 
C     -2.7044571875      1.2150555856      0.1055946626 
C     -4.0608190368      0.6723952305      0.1324773142 
H     -5.3978066156     -0.9730883978      0.1191663364 
H     -3.4216780634     -2.6614067734     -0.1328742215 
C     -0.2921485285      0.5962173138      0.0111564086 
H     -4.8313897632      1.3825487692      0.4181696095 
C      0.3005329746     -1.7668918065     -0.3303420868 
H      0.8815243283     -2.6503936095     -0.4726923433 
O     -0.0623740464      1.9070442659      0.1966304739 
O     -1.1215668820     -2.0181423409     -0.2502859016 
O     -2.4375303147      2.4507224146      0.2436804155 
H     -1.0816600228      2.3326107167      0.1797038195 
C      2.1189995861     -0.1985669335     -0.0980405254 
C      2.9600878396     -1.0148749584      0.6931677148 
C      2.7552176610      0.9342612587     -0.6919309287 
C      4.3621353730     -0.8114131600      0.7544793535 
H      2.5469246757     -1.8638142868      1.2875987585 
C      4.1557216994      1.0948273910     -0.6438080090 
H      2.1289462074      1.5929087631     -1.3162795838 
C      5.0016555803      0.2184807397      0.0571666150 
H      4.9405068045     -1.5759665447      1.2294185320 
H      4.6110070789      1.9563844780     -1.1077159795 
H      6.0925457688      0.3131851937     -0.0692111564 
C      0.6503782661     -0.4010783632     -0.1675429050  


